grid_simulations/tests/Result_no_control/output_voltage_end.csv
# Result_no_control/output_voltage_end.csv run at 2000-01-02 00:00:00 EST on 963 nodes
node_name,voltA_mag,voltA_angle,voltB_mag,voltB_angle,voltC_mag,voltC_angle
SourceBus,6668.395609,0.000000,6668.395609,4.188790,6668.395609,2.094395
Bus1,247.412871,-0.582110,242.603469,3.588031,246.479764,1.535383
Bus2,246.863252,-0.580890,241.391039,3.588227,246.258546,1.534850
Bus3,246.805654,-0.580761,241.263933,3.588248,246.235358,1.534794
Bus4,246.751697,-0.580641,241.144855,3.588268,246.213635,1.534741
Bus5,246.704657,-0.580536,241.041036,3.588285,246.194697,1.534696
Bus6,246.630556,-0.580371,240.877480,3.588311,246.164863,1.534623
Bus7,241.600790,-0.568884,229.740514,3.590222,244.136322,1.529672
Bus8,241.376276,-0.568359,229.241727,3.590311,244.045608,1.529449
Bus9,241.189460,-0.567920,228.826579,3.590387,243.970114,1.529262
Bus10,241.025553,-0.567535,228.462254,3.590453,243.903869,1.529099
Bus11,240.903270,-0.567248,228.190399,3.590502,243.854443,1.528977
Bus12,240.788495,-0.566977,227.935195,3.590549,243.808046,1.528862
Bus13,240.717927,-0.566811,227.778268,3.590577,243.779518,1.528791
Bus14,240.542275,-0.566396,227.387592,3.590649,243.708502,1.528616
Bus15,239.120877,-0.563014,224.222826,3.591238,243.133487,1.527189
Bus16,239.120877,-0.563014,224.222826,3.591238,243.133487,1.527189
Bus17,237.400907,-0.558859,220.385113,3.591976,242.436851,1.525449
Bus18,239.120877,-0.563014,224.222826,3.591238,243.133487,1.527189
Bus19,237.282715,-0.558571,220.121060,3.592027,242.388946,1.525329
Bus20,239.120877,-0.563014,224.222826,3.591238,243.133487,1.527189
Bus21,237.150022,-0.558247,219.824559,3.592085,242.335157,1.525194
Bus22,239.120877,-0.563014,224.222826,3.591238,243.133487,1.527189
Bus23,236.934024,-0.557719,219.341798,3.592180,242.247588,1.524974
Bus24,239.120877,-0.563014,224.222826,3.591238,243.133487,1.527189
Bus25,236.541242,-0.556756,218.463543,3.592354,242.088309,1.524574
Bus26,239.120877,-0.563014,224.222826,3.591238,243.133487,1.527189
Bus27,235.821490,-0.556005,218.466124,3.592308,242.096080,1.524604
Bus28,232.473043,-0.545270,207.363273,3.596421,239.822173,1.518430
Bus29,239.120877,-0.563014,224.222826,3.591238,243.133487,1.527189
Bus30,235.722392,-0.555902,218.466479,3.592301,242.097150,1.524608
Bus31,235.724901,-0.555904,218.466470,3.592301,242.097123,1.524608
Bus32,231.395308,-0.542144,204.408823,3.597578,239.220435,1.516774
Bus33,239.120877,-0.563014,224.222826,3.591238,243.133487,1.527189
Bus34,235.495460,-0.555664,218.467293,3.592286,242.099600,1.524617
Bus35,235.721631,-0.555901,218.466482,3.592301,242.097158,1.524608
Bus36,231.404521,-0.542112,203.599793,3.598554,239.222723,1.516726
Bus37,227.877565,-0.533491,196.257587,3.600375,237.331662,1.513170
Bus38,239.120877,-0.563014,224.222826,3.591238,243.133487,1.527189
Bus39,235.716928,-0.555896,218.466499,3.592301,242.097209,1.524608
Bus40,231.404843,-0.542111,203.571536,3.598588,239.222803,1.516724
Bus41,231.405974,-0.542107,203.472222,3.598709,239.223084,1.516718
Bus42,225.446780,-0.527327,190.602139,3.602456,236.022816,1.510634
Bus43,227.877565,-0.533491,196.257587,3.600375,237.331662,1.513170
Bus44,239.120877,-0.563014,224.222826,3.591238,243.133487,1.527189
Bus45,235.710896,-0.555890,218.466520,3.592300,242.097274,1.524608
Bus46,231.404988,-0.542110,203.558800,3.598604,239.222839,1.516723
Bus47,231.409470,-0.542095,203.165282,3.599082,239.223952,1.516700
Bus48,223.615730,-0.522581,186.329138,3.604113,235.034794,1.508700
Bus49,227.877565,-0.533491,196.257587,3.600375,237.331662,1.513170
Bus50,239.120877,-0.563014,224.222826,3.591238,243.133487,1.527189
Bus51,235.696207,-0.555874,218.466573,3.592299,242.097433,1.524609
Bus52,231.405141,-0.542110,203.545303,3.598620,239.222877,1.516722
Bus53,223.352149,-0.521890,185.713100,3.604358,234.892414,1.508420
Bus54,223.615730,-0.522581,186.329138,3.604113,235.034794,1.508700
Bus55,227.877565,-0.533491,196.257587,3.600375,237.331662,1.513170
Bus56,239.120877,-0.563014,224.222826,3.591238,243.133487,1.527189
Bus57,235.683631,-0.555861,218.466618,3.592299,242.097568,1.524609
Bus58,231.405288,-0.542109,203.532448,3.598636,239.222914,1.516722
Bus59,222.159540,-0.518741,182.922756,3.605489,234.247702,1.507146
Bus60,223.615730,-0.522581,186.329138,3.604113,235.034794,1.508700
Bus61,227.877565,-0.533491,196.257587,3.600375,237.331662,1.513170
Bus62,239.120877,-0.563014,224.222826,3.591238,243.133487,1.527189
Bus63,235.623346,-0.555798,218.466834,3.592295,242.098219,1.524612
Bus64,231.405375,-0.542109,203.524749,3.598645,239.222935,1.516721
Bus65,221.967379,-0.518147,182.349214,3.605842,234.101144,1.506816
Bus66,221.086212,-0.517548,182.926988,3.605406,234.258677,1.507194
Bus67,223.615730,-0.522581,186.329138,3.604113,235.034794,1.508700
Bus68,227.877565,-0.533491,196.257587,3.600375,237.331662,1.513170
Bus69,239.120877,-0.563014,224.222826,3.591238,243.133487,1.527189
Bus70,235.410264,-0.555574,218.467599,3.592281,242.100520,1.524621
Bus71,231.405548,-0.542108,203.509644,3.598663,239.222978,1.516720
Bus72,219.703047,-0.511060,175.574813,3.610187,232.371554,1.502889
Bus73,220.823942,-0.517255,182.928023,3.605386,234.261359,1.507206
Bus74,220.823942,-0.517255,182.928023,3.605386,234.261359,1.507206
Bus75,223.615730,-0.522581,186.329138,3.604113,235.034794,1.508700
Bus76,227.877565,-0.533491,196.257587,3.600375,237.331662,1.513170
Bus77,239.120877,-0.563014,224.222826,3.591238,243.133487,1.527189
Bus78,231.406419,-0.542105,203.433093,3.598756,239.223195,1.516716
Bus79,218.916389,-0.508555,173.214251,3.611781,231.769514,1.501507
Bus80,223.615730,-0.522581,186.329138,3.604113,235.034794,1.508700
Bus81,227.877565,-0.533491,196.257587,3.600375,237.331662,1.513170
Bus82,239.120877,-0.563014,224.222826,3.591238,243.133487,1.527189
Bus83,231.409705,-0.542094,203.144649,3.599107,239.224011,1.516698
Bus84,218.744898,-0.508006,172.699159,3.612135,231.638189,1.501204
Bus85,223.615730,-0.522581,186.329138,3.604113,235.034794,1.508700
Bus86,227.877565,-0.533491,196.257587,3.600375,237.331662,1.513170
Bus87,239.120877,-0.563014,224.222826,3.591238,243.133487,1.527189
Bus88,218.397344,-0.506890,171.654699,3.612859,231.371946,1.500589
Bus89,223.615730,-0.522581,186.329138,3.604113,235.034794,1.508700
Bus90,227.877565,-0.533491,196.257587,3.600375,237.331662,1.513170
Bus91,239.120877,-0.563014,224.222826,3.591238,243.133487,1.527189
Bus92,218.069834,-0.505834,170.669808,3.613549,231.120947,1.500008
Bus93,227.877565,-0.533491,196.257587,3.600375,237.331662,1.513170
Bus94,239.120877,-0.563014,224.222826,3.591238,243.133487,1.527189
Bus95,217.879585,-0.505219,170.097391,3.613954,230.975093,1.499670
Bus96,227.877565,-0.533491,196.257587,3.600375,237.331662,1.513170
Bus97,239.120877,-0.563014,224.222826,3.591238,243.133487,1.527189
Bus98,217.753985,-0.504812,169.719367,3.614223,230.878782,1.499446
Bus99,227.877565,-0.533491,196.257587,3.600375,237.331662,1.513170
Bus100,239.120877,-0.563014,224.222826,3.591238,243.133487,1.527189
Bus101,217.580626,-0.504250,169.197442,3.614597,230.745822,1.499137
Bus102,227.877565,-0.533491,196.257587,3.600375,237.331662,1.513170
Bus103,239.120877,-0.563014,224.222826,3.591238,243.133487,1.527189
Bus104,217.581850,-0.504247,169.187817,3.614593,230.742278,1.499118
Bus105,217.458698,-0.503912,168.901163,3.614753,230.676000,1.498996
Bus106,227.877565,-0.533491,196.257587,3.600375,237.331662,1.513170
Bus107,217.583331,-0.504244,169.176172,3.614589,230.737990,1.499095
Bus108,217.389569,-0.503720,168.733161,3.614841,230.636410,1.498916
Bus109,227.877565,-0.533491,196.257587,3.600375,237.331662,1.513170
Bus110,217.585048,-0.504240,169.162675,3.614584,230.733021,1.499068
Bus111,214.668412,-0.496053,162.105319,3.618483,229.075473,1.495738
Bus112,227.877565,-0.533491,196.257587,3.600375,237.331662,1.513170
Bus113,217.587666,-0.504234,169.142095,3.614577,230.725444,1.499027
Bus114,214.396516,-0.495274,161.441477,3.618864,228.919229,1.495417
Bus115,227.877565,-0.533491,196.257587,3.600375,237.331662,1.513170
Bus116,217.591031,-0.504227,169.115638,3.614567,230.715704,1.498975
Bus117,214.396478,-0.495282,161.418441,3.618857,228.904047,1.495369
Bus118,213.563589,-0.493380,159.596776,3.618640,228.578747,1.494299
Bus119,227.877565,-0.533491,196.257587,3.600375,237.331662,1.513170
Bus120,217.593446,-0.504222,169.096644,3.614560,230.708712,1.498938
Bus121,214.396478,-0.495282,161.418441,3.618857,228.904047,1.495369
Bus122,214.396459,-0.495286,161.407225,3.618853,228.896655,1.495345
Bus123,212.063471,-0.489926,156.270117,3.618224,227.965456,1.492274
Bus124,227.877565,-0.533491,196.257587,3.600375,237.331662,1.513170
Bus125,217.596860,-0.504214,169.069805,3.614550,230.698832,1.498885
Bus126,214.396478,-0.495282,161.418441,3.618857,228.904047,1.495369
Bus127,214.396371,-0.495304,161.354534,3.618836,228.861931,1.495235
Bus128,211.389702,-0.488357,154.774129,3.618030,227.689965,1.491360
Bus129,227.877565,-0.533491,196.257587,3.600375,237.331662,1.513170
Bus130,217.600553,-0.504206,169.040768,3.614540,230.688144,1.498827
Bus131,214.396478,-0.495282,161.418441,3.618857,228.904047,1.495369
Bus132,214.139445,-0.495009,161.355582,3.618813,228.864462,1.495247
Bus133,214.472304,-0.495325,161.194756,3.618980,228.742411,1.494812
Bus134,211.189338,-0.487888,154.329032,3.617972,227.608035,1.491088
Bus135,227.877565,-0.533491,196.257587,3.600375,237.331662,1.513170
Bus136,217.604036,-0.504199,169.013384,3.614530,230.678065,1.498773
Bus137,214.396478,-0.495282,161.418441,3.618857,228.904047,1.495369
Bus138,214.117320,-0.494983,161.355672,3.618812,228.864680,1.495248
Bus139,214.528794,-0.495340,161.075891,3.619087,228.653521,1.494498
Bus140,210.963223,-0.487357,153.826607,3.617906,227.515573,1.490780
Bus141,227.877565,-0.533491,196.257587,3.600375,237.331662,1.513170
Bus142,217.609763,-0.504186,168.968360,3.614513,230.661495,1.498684
Bus143,214.396478,-0.495282,161.418441,3.618857,228.904047,1.495369
Bus144,214.095611,-0.494958,161.355761,3.618810,228.864894,1.495249
Bus145,214.566624,-0.495351,160.996292,3.619159,228.594006,1.494287
Bus146,210.750619,-0.486858,153.354086,3.617843,227.428634,1.490491
Bus147,227.877565,-0.533491,196.257587,3.600375,237.331662,1.513170
Bus148,217.636993,-0.504127,168.754280,3.614435,230.582734,1.498261
Bus149,214.396478,-0.495282,161.418441,3.618857,228.904047,1.495369
Bus150,214.078082,-0.494938,161.355832,3.618808,228.865066,1.495250
Bus151,214.570885,-0.495492,161.018894,3.619286,228.522615,1.494260
Bus152,214.577403,-0.495312,160.066242,3.620571,228.597254,1.494229
Bus153,210.502619,-0.486273,152.802745,3.617770,227.327217,1.490152
Bus154,227.877565,-0.533491,196.257587,3.600375,237.331662,1.513170
Bus155,217.642925,-0.504114,168.707644,3.614417,230.565581,1.498169
Bus156,214.396478,-0.495282,161.418441,3.618857,228.904047,1.495369
Bus157,214.051772,-0.494908,161.355940,3.618806,228.865326,1.495251
Bus158,214.582206,-0.495866,161.078851,3.619624,228.333282,1.494189
Bus159,214.578059,-0.495309,160.009643,3.620657,228.597451,1.494225
Bus160,210.431271,-0.486105,152.644099,3.617749,227.298040,1.490055
Bus161,227.877565,-0.533491,196.257587,3.600375,237.331662,1.513170
Bus162,217.654595,-0.504073,167.699168,3.615889,230.568957,1.498106
Bus163,217.641894,-0.504156,168.602894,3.614389,230.492633,1.497948
Bus164,214.396478,-0.495282,161.418441,3.618857,228.904047,1.495369
Bus165,214.020053,-0.494871,161.356069,3.618803,228.865638,1.495253
Bus166,214.586145,-0.495995,161.099682,3.619742,228.267517,1.494164
Bus167,214.578659,-0.495307,159.957939,3.620736,228.597632,1.494222
Bus168,210.026048,-0.485146,151.742810,3.617627,227.132319,1.489502
Bus169,227.877565,-0.533491,196.257587,3.600375,237.331662,1.513170
Bus170,217.656800,-0.504065,167.508691,3.616169,230.569595,1.498094
Bus171,217.640528,-0.504212,168.463827,3.614352,230.395804,1.497655
Bus172,214.396478,-0.495282,161.418441,3.618857,228.904047,1.495369
Bus173,213.996091,-0.494844,161.356167,3.618801,228.865874,1.495254
Bus174,214.586145,-0.495995,161.099682,3.619742,228.267517,1.494164
Bus175,214.586953,-0.496032,161.105655,3.619773,227.734954,1.494737
Bus176,214.578908,-0.495306,159.936460,3.620769,228.597707,1.494221
Bus177,209.797261,-0.484603,151.233758,3.617558,227.038750,1.489188
Bus178,217.661349,-0.504048,167.115740,3.616749,230.570911,1.498070
Bus179,217.638772,-0.504176,168.433037,3.614305,230.402938,1.497614
Bus180,217.641043,-0.504232,168.467215,3.614369,230.091264,1.497979
Bus181,214.396478,-0.495282,161.418441,3.618857,228.904047,1.495369
Bus182,213.968362,-0.494812,161.356280,3.618799,228.866147,1.495255
Bus183,214.586145,-0.495995,161.099682,3.619742,228.267517,1.494164
Bus184,214.587040,-0.496035,161.106300,3.619776,227.677441,1.494800
Bus185,214.579444,-0.495304,159.890164,3.620840,228.597869,1.494218
Bus186,209.627466,-0.484199,150.855875,3.617506,226.969306,1.488956
Bus187,217.631868,-0.504033,168.311876,3.614121,230.431018,1.497454
Bus188,217.643178,-0.504317,168.481240,3.614441,228.831095,1.499329
Bus189,214.396478,-0.495282,161.418441,3.618857,228.904047,1.495369
Bus190,213.942290,-0.494782,161.356387,3.618796,228.866404,1.495256
Bus191,214.586145,-0.495995,161.099682,3.619742,228.267517,1.494164
Bus192,214.586145,-0.495995,161.099682,3.619742,228.267517,1.494164
Bus193,214.587125,-0.496039,161.106925,3.619780,227.621811,1.494860
Bus194,214.580811,-0.495300,159.772252,3.621020,228.598281,1.494210
Bus195,209.474842,-0.483835,150.516141,3.617459,226.906882,1.488747
Bus196,217.619552,-0.503779,168.095563,3.613791,230.481167,1.497169
Bus197,217.643387,-0.504325,168.482611,3.614448,228.707995,1.499462
Bus198,217.643299,-0.504321,168.482033,3.614445,228.759921,1.499406
Bus199,214.396478,-0.495282,161.418441,3.618857,228.904047,1.495369
Bus200,213.914238,-0.494750,161.356501,3.618794,228.866680,1.495258
...
SourceBus_1,6611.733031,-0.017855,6585.108478,4.177174,6634.077173,2.083129
LOAD1,235.495460,-0.555664,218.467293,3.592286,242.099600,1.524617
LOAD2,231.409470,-0.542095,203.165282,3.599082,239.223952,1.516700
LOAD3,235.410264,-0.555574,218.467599,3.592281,242.100520,1.524621
LOAD4,220.823942,-0.517255,182.928023,3.605386,234.261359,1.507206
LOAD5,220.823942,-0.517255,182.928023,3.605386,234.261359,1.507206
LOAD6,231.409705,-0.542094,203.144649,3.599107,239.224011,1.516698
LOAD7,217.661349,-0.504048,167.115740,3.616749,230.570911,1.498070
LOAD8,217.643915,-0.504346,168.486076,3.614465,228.396783,1.499798
LOAD9,216.395494,-0.502389,168.100503,3.613689,230.493360,1.497226
LOAD10,217.718530,-0.503406,165.062916,3.617849,230.513784,1.496631
LOAD11,217.718530,-0.503406,165.062916,3.617849,230.513784,1.496631
LOAD12,217.644057,-0.504351,168.487004,3.614470,228.313383,1.499888
LOAD13,214.597355,-0.495240,158.345563,3.623227,228.603268,1.494122
LOAD14,213.431811,-0.494192,161.358470,3.618752,228.871434,1.495280
LOAD15,214.595162,-0.495248,158.534800,3.622933,228.602605,1.494133
LOAD16,214.588831,-0.496116,161.119526,3.619846,226.498645,1.496079
LOAD17,214.588464,-0.496099,161.116829,3.619831,226.739089,1.495818
LOAD18,202.687685,-0.464644,137.413017,3.613237,225.384412,1.482580
LOAD19,207.199671,-0.478204,145.158042,3.617128,224.933401,1.486289
LOAD20,202.743169,-0.468329,140.390363,3.613702,225.965074,1.483429
LOAD21,206.987759,-0.479079,147.222312,3.616898,226.311041,1.486759
LOAD22,202.507029,-0.468042,140.391432,3.613679,225.967300,1.483441
LOAD23,201.754464,-0.460346,133.742663,3.615176,226.663336,1.480245
LOAD24,205.866072,-0.473209,139.960523,3.618978,223.386399,1.482137
LOAD25,191.747305,-0.430561,124.224427,3.597875,229.558281,1.476718
LOAD26,204.190064,-0.457963,125.839122,3.626030,223.671034,1.466141
LOAD27,205.503217,-0.470678,137.253793,3.620677,222.442291,1.479655
LOAD28,205.503468,-0.470697,137.256896,3.620695,222.169497,1.479958
LOAD29,191.598413,-0.424352,120.317304,3.601183,229.825490,1.471841
LOAD30,191.832082,-0.430670,124.223981,3.597884,229.557525,1.476714
LOAD31,191.619314,-0.424379,120.317193,3.601185,229.825306,1.471840
LOAD32,203.561583,-0.455204,124.685062,3.623938,222.537557,1.465063
LOAD33,195.281535,-0.423750,116.386963,3.611504,228.473591,1.465636
LOAD34,194.120572,-0.438439,127.277679,3.600149,228.932523,1.478495
LOAD35,195.631786,-0.422397,113.238229,3.617982,229.524939,1.462859
LOAD36,195.080438,-0.423544,112.746220,3.618102,229.672805,1.465314
LOAD37,195.081502,-0.423541,112.659274,3.618291,229.673140,1.465308
LOAD38,202.789074,-0.451313,120.336500,3.626557,223.418026,1.461570
LOAD39,202.381074,-0.447971,118.848985,3.624851,221.565224,1.459825
LOAD40,202.286984,-0.443604,114.012555,3.629468,223.271754,1.454284
LOAD41,202.554870,-0.430385,102.232209,3.646451,223.455057,1.441864
LOAD42,202.381091,-0.447975,118.849663,3.624856,221.506777,1.459890
LOAD43,202.126189,-0.427170,103.313304,3.641555,221.002337,1.441400
LOAD44,203.997169,-0.456721,124.226692,3.627451,223.599193,1.465101
LOAD45,202.553144,-0.430391,102.376800,3.646105,223.454393,1.441873
LOAD46,198.479228,-0.445565,121.338435,3.622380,223.420495,1.461450
LOAD47,202.126216,-0.427163,103.312165,3.641547,221.097993,1.441293
LOAD48,198.650916,-0.445778,121.337626,3.622400,223.418963,1.461441
LOAD49,198.311290,-0.445356,121.339228,3.622361,223.421992,1.461459
LOAD50,202.896335,-0.414554,91.022855,3.661508,224.591408,1.428122
LOAD51,199.656675,-0.435277,112.205464,3.626946,223.511816,1.450640
LOAD52,199.620804,-0.416444,99.133723,3.641980,224.071159,1.434296
LOAD53,202.896335,-0.414554,90.706934,3.662381,224.591408,1.428122
LOAD54,199.192605,-0.434704,112.207692,3.626889,223.515837,1.450664
LOAD55,199.574845,-0.416289,99.144319,3.641674,224.089208,1.434414
